Circuit: * Z:\home\hugo\Documentos\Li-Fi\Esquemas-Eletricos\Draft1.asc

Limiting rise time of source v3 to 0.0001
Limiting fall time of source v3 to 0.0001
WARNING: Less than two connections to node N001.  This node is used by V3.
.OP point found by inspection.

Date: Mon Jul 24 08:22:57 2017
Total elapsed time: 0.061 seconds.

tnom = 27
temp = 27
method = modified trap
totiter = 2204
traniter = 2204
tranpoints = 1103
accept = 1089
rejected = 14
matrix size = 2
fillins = 0
solver = Normal
Matrix Compiler1: off  [0.1]/0.2/0.2
Matrix Compiler2:       8 opcodes  0.2/[0.2]/0.2

